
#######################################################################
#
#                 Cambridge Crystallographic Data Centre
#                                CCDC 
#
#######################################################################
#
# If this CIF has been generated from an entry in the Cambridge 
# Structural Database, then it will include bibliographic, chemical, 
# crystal, experimental, refinement or atomic coordinate data resulting 
# from the CCDC's data processing and validation procedures.
#
#######################################################################

data_KAXQIL
_symmetry_cell_setting           monoclinic
_symmetry_space_group_name_H-M   'P 21/n'
_symmetry_Int_Tables_number      14
_space_group_name_Hall           '-P 2yn'
loop_
_symmetry_equiv_pos_site_id
_symmetry_equiv_pos_as_xyz
1 x,y,z
2 1/2-x,1/2+y,1/2-z
3 -x,-y,-z
4 1/2+x,1/2-y,1/2+z
_cell_length_a                   11.8214(3)
_cell_length_b                   5.56730(13)
_cell_length_c                   22.7603(5)
_cell_angle_alpha                90
_cell_angle_beta                 100.356(2)
_cell_angle_gamma                90
_cell_volume                     1473.53
loop_
_atom_site_label
_atom_site_type_symbol
_atom_site_fract_x
_atom_site_fract_y
_atom_site_fract_z
Ca1 Ca 0.36318(3) 0.24415(5) 0.277126(14)
S1 S 0.60165(3) 0.03637(7) 0.392320(16)
O1 O 0.50690(10) 0.1950(2) 0.36904(5)
O2 O 0.73774(11) 0.0848(2) 0.69064(5)
O3 O 0.58466(12) -0.2189(2) 0.38824(6)
O4 O 1.01577(12) 0.4743(2) 0.25622(6)
O5 O 1.04305(12) 0.0809(2) 0.24715(7)
C1 C 0.99546(14) 0.2586(3) 0.26511(8)
C2 C 0.72326(14) 0.2607(3) 0.65507(7)
C3 C 0.64494(14) 0.1092(3) 0.46864(7)
C4 C 0.71894(14) 0.1104(3) 0.35781(7)
C5 C 0.80704(16) -0.0567(3) 0.36004(8)
H1 H 0.8055 -0.1996 0.3811
C6 C 0.72975(17) -0.0114(3) 0.56772(8)
H2 H 0.7682 -0.1249 0.5939
C7 C 0.69872(14) 0.2073(3) 0.58931(7)
C8 C 0.61656(16) 0.3313(3) 0.48920(8)
H3 H 0.5794 0.4459 0.4628
C9 C 0.72051(15) 0.3272(3) 0.32810(8)
H4 H 0.6612 0.4377 0.3271
C10 C 0.81276(15) 0.3756(3) 0.29975(8)
H5 H 0.8161 0.5217 0.2803
C11 C 0.89738(16) -0.0071(3) 0.33040(9)
H6 H 0.9561 -0.1186 0.3309
C12 C 0.70345(18) -0.0610(3) 0.50695(8)
H7 H 0.7249 -0.2066 0.4922
C13 C 0.90018(14) 0.2083(3) 0.30006(7)
C14 C 0.64454(16) 0.3796(3) 0.54979(8)
H8 H 0.6269 0.5287 0.5642
O6 O 0.73242(11) 0.4749(2) 0.67168(6)
Ca1B Ca 0.63682(3) -0.24415(5) 0.722874(14)
Ca1C Ca 0.86318(3) 0.25585(5) 0.777126(14)
Ca1A Ca 1.13682(3) 0.74415(5) 0.222874(14)
Ca1A_2 Ca 1.13682(3) -0.25585(5) 0.222874(14)
Ca1B_2 Ca 0.63682(3) 0.75585(5) 0.722874(14)
O2B O 0.26226(11) -0.0848(2) 0.30936(5)
O2C O 0.23774(11) 0.4152(2) 0.19064(5)
O4A O 0.48423(12) -0.0257(2) 0.24378(6)
O5A O 0.45695(12) 0.5809(2) 0.25285(7)
O6B O 0.26758(11) 0.5251(2) 0.32832(6)
O6C O 0.23242(11) 0.0251(2) 0.17168(6)
O7? O 0.9857(11) 0.411(2) 0.4797(6)
loop_
_geom_bond_atom_site_label_1
_geom_bond_atom_site_label_2
_geom_bond_site_symmetry_1
_geom_bond_site_symmetry_2
Ca1 O1 1_555 1_555
S1 O1 1_555 1_555
O2 C2 1_555 1_555
O3 S1 1_555 1_555
O4 C1 1_555 1_555
O5 C1 1_555 1_555
C1 C13 1_555 1_555
C2 C7 1_555 1_555
C3 S1 1_555 1_555
C4 S1 1_555 1_555
C5 C4 1_555 1_555
H1 C5 1_555 1_555
C6 H2 1_555 1_555
C7 C6 1_555 1_555
C8 C3 1_555 1_555
H3 C8 1_555 1_555
C9 C4 1_555 1_555
H4 C9 1_555 1_555
C10 C9 1_555 1_555
H5 C10 1_555 1_555
C11 C5 1_555 1_555
H6 C11 1_555 1_555
C12 C3 1_555 1_555
H7 C12 1_555 1_555
C13 C10 1_555 1_555
C14 C7 1_555 1_555
H8 C14 1_555 1_555
O6 C2 1_555 1_555
Ca1B O2 1_555 1_555
Ca1C O2 1_555 1_555
Ca1A O4 1_555 1_555
Ca1A_2 O5 1_555 1_555
Ca1B_2 O6 1_555 1_555
O2B Ca1 1_555 1_555
O2C Ca1 1_555 1_555
O4A Ca1 1_555 1_555
O5A Ca1 1_555 1_555
O6B Ca1 1_555 1_555
O6C Ca1 1_555 1_555
C6 C12 1_555 1_555
C8 C14 1_555 1_555
C11 C13 1_555 1_555
O6 Ca1C 1_555 1_555

#END
